Version8/Distrib/Examples/ADiakoptics/IEEE_123_Bus-G/Torn_Circuit/Master.DSS
Clear
Set DefaultBaseFrequency=60
New Circuit.ieee123


Redirect Vsource.dss
Redirect LineCode.DSS
Redirect LoadShape.DSS
Redirect GrowthShape.DSS
Redirect TCC_Curve.DSS
Redirect Spectrum.DSS
Redirect Line.DSS
Redirect Load.DSS
Redirect Transformer.DSS
Redirect RegControl.DSS
MakeBusList
Redirect BusVoltageBases.dss  ! set voltage bases
Buscoords buscoords.dss
GIScoords GIScoords.dss
